Version 4
SHEET 1 916 680
WIRE 464 -256 -176 -256
WIRE 800 -160 624 -160
WIRE 464 -144 464 -176
WIRE 464 -144 80 -144
WIRE 624 -144 624 -160
WIRE 624 -144 464 -144
WIRE 624 -128 624 -144
WIRE 800 -128 800 -160
WIRE 80 -112 80 -144
WIRE 464 -112 464 -144
WIRE 736 -80 704 -80
WIRE 400 -64 224 -64
WIRE 624 -32 624 -48
WIRE 704 -32 704 -80
WIRE 704 -32 624 -32
WIRE 624 0 624 -32
WIRE 80 16 80 -32
WIRE 224 16 224 -64
WIRE 224 16 80 16
WIRE 80 48 80 16
WIRE 336 64 240 64
WIRE -176 80 -176 -256
WIRE 800 96 800 -32
WIRE 336 128 336 64
WIRE 624 144 624 80
WIRE 80 176 80 128
WIRE 240 176 240 144
WIRE 240 176 144 176
WIRE -176 192 -176 160
WIRE 240 192 240 176
WIRE 464 192 464 -16
WIRE 800 192 800 176
WIRE 144 224 144 176
WIRE 336 272 336 208
WIRE 240 288 240 272
WIRE 304 288 240 288
WIRE 464 288 464 272
WIRE 240 304 240 288
WIRE 624 304 624 240
WIRE 80 336 80 272
WIRE 80 336 -272 336
WIRE 304 336 304 288
WIRE 560 336 560 192
WIRE 560 336 304 336
WIRE -272 400 -272 336
WIRE 240 416 240 384
WIRE 240 416 224 416
WIRE 224 432 224 416
WIRE -272 544 -272 480
FLAG -176 192 0
FLAG 336 272 0
FLAG 224 432 0
FLAG -272 544 0
FLAG 464 288 0
FLAG 624 304 0
FLAG 800 192 0
SYMBOL voltage -176 64 R0
WINDOW 123 0 0 Left 2
WINDOW 39 0 0 Left 2
SYMATTR InstName V1
SYMATTR Value 140
SYMBOL res 64 32 R0
SYMATTR InstName R1
SYMATTR Value 470k
SYMBOL npn 144 176 M0
SYMATTR InstName Q1
SYMATTR Value 2N5550
SYMBOL voltage 336 112 R0
WINDOW 123 0 0 Left 2
WINDOW 39 0 0 Left 2
SYMATTR InstName V2
SYMATTR Value 5
SYMBOL res 224 48 R0
SYMATTR InstName R2
SYMATTR Value 10k
SYMBOL res 224 176 R0
SYMATTR InstName R3
SYMATTR Value 10k
SYMBOL res 224 288 R0
SYMATTR InstName R4
SYMATTR Value 10k
SYMBOL res 64 -128 R0
SYMATTR InstName R5
SYMATTR Value 470k
SYMBOL pnp 400 -16 M180
SYMATTR InstName Q2
SYMATTR Value 2N5401
SYMBOL res 448 -272 R0
SYMATTR InstName R6
SYMATTR Value 22k
SYMBOL voltage -272 384 R0
WINDOW 123 0 0 Left 2
WINDOW 39 0 0 Left 2
SYMATTR InstName V3
SYMATTR Value PULSE(5 0 10u 10n 10n 200u 400u)
SYMBOL res 448 176 R0
SYMATTR InstName R7
SYMATTR Value 100k
SYMBOL pnp 736 -32 M180
SYMATTR InstName Q3
SYMATTR Value 2N5401
SYMBOL res 608 -144 R0
SYMATTR InstName R8
SYMATTR Value 470k
SYMBOL res 608 -16 R0
SYMATTR InstName R9
SYMATTR Value 470k
SYMBOL npn 560 144 R0
SYMATTR InstName Q4
SYMATTR Value 2N5550
SYMBOL res 784 80 R0
SYMATTR InstName R10
SYMATTR Value 100k
TEXT 368 504 Left 2 !.tran 20m
